LAMMPS (7 Feb 2024 - Update 1)
# This LAMMPS input script simulates the melting of a cube of Au
#doi:10.1088/1742-6596/1402/6/066009

variable fccAu equal 4.065
variable L1 equal 4.065*8
variable L2 equal 4.065*4
variable Ti equal 1
variable Tf equal 2500

units metal
boundary p p p
atom_style atomic

region system block -32.52 32.52 -32.52 32.52 -32.52 32.52
region cube block -16.26 16.26 -16.26 16.26 -16.26 16.26
create_box 1 system
Created orthogonal box = (-32.52 -32.52 -32.52) to (32.52 32.52 32.52)

include parm.lammps
pair_style eam/fs
pair_coeff * * FeAu-eam-LJ.fs Au

lattice fcc 4.065
Lattice spacing in x,y,z = 4.065 4.065 4.065
create_atoms 1 region cube # place atoms on lattice
Created 2457 atoms
lattice none 1.0 # re-set lattice to default valu

velocity all create 1 425521 rot yes mom yes dist gaussian
fix mynvt all nvt temp 1 2500 0.1
fix myrc all recenter INIT INIT INIT
timestep 0.01 #x10

dump dp1 all atom 1000 dump.lammpstrj
thermo 1000

run 100000
Step          Temp          E_pair         E_mol          TotEng         Press
0   1             -8767.5969      0             -8767.2794     -2985.8603
Averages over the last 51 of 101 rows, steps 50000 to 100000:
Temp E_pair E_mol TotEng Press
1875.07 -7654.82 0 -7059.56 -75.9583
Loop time of 589.674 on 1 procs for 100000 steps with 2457 atoms
