LAMMPS (7 Feb 2024 - Update 1)
units			lj
boundary		p p p
atom_style		bond
special_bonds   	fene
bond_style      	fene
pair_style      	lj/cut 2.5

read_data      	10mers.data
Reading data file ...
  orthogonal box = (-6.6789713 -6.6789713 -6.6789713) to (6.6789713 6.6789713 6.6789713)
  reading atoms ...
  2000 atoms
  reading velocities ...
  2000 velocities
  scanning bonds ...
  reading bonds ...
  1800 bonds
Finding 1-2 1-3 1-4 neighbors ...
     2 = max # of 1-2 neighbors
     2 = max # of special neighbors

mass 			1 1

bond_coeff     		1 30 1.5 1.0 1.0
pair_coeff 		1 1 1.0 1.0 2.5
neighbor        	0.2 bin
neigh_modify    	check yes every 1

compute		1 all msd
compute		2 all rdf 100 1 1 cutoff 2.5
compute 		3 all gyration

timestep		0.001
thermo 		100
thermo_style 		custom step etotal enthalpy vol temp press density c_3[4]
dump                   MyDump all custom 1000 dump.atom id type x y z vx vy vz

fix 			1 all ave/time 10 5 50 c_1[4] file msd.txt
fix 			3 all ave/time 10 50 1000 c_2[*] file rdf.txt mode vector

fix 			npt all npt temp 1.0 0.2 0.1 iso 0.0 0.0 1
run             	100000
Generated 0 of 0 mixed pair_coeff terms from geometric mixing rule
Step         TotEng        Enthalpy        Volume          Temp          Press         Density         c_3[4]
0   15.563016      16.104694      2383.5195      0.96058228     0.45451961     0.83909529     11.401434
Averages over the last 501 of 1001 rows, steps 50000 to 100000:
TotEng Enthalpy Volume Temp Press Density c_3[4]
12.7326 12.7355 1952.15 0.400239 0.0030292 1.02509 10.527
Loop time of 71.2725 on 1 procs for 100000 steps with 2000 atoms

write_data 		10mer_simulated.data
System init for write_data ...
Generated 0 of 0 mixed pair_coeff terms from geometric mixing rule
