LAMMPS (7 Feb 2024 - Update 1)
units			lj
boundary		p p p
atom_style		bond
special_bonds   	fene
bond_style      	fene
pair_style      	lj/cut 2.5

read_data      	100mers.data
Reading data file ...
  orthogonal box = (-6.6412405 -6.6412405 -6.6412405) to (6.6412405 6.6412405 6.6412405)
  reading atoms ...
  2000 atoms
  reading velocities ...
  2000 velocities
  scanning bonds ...
  reading bonds ...
  1980 bonds
Finding 1-2 1-3 1-4 neighbors ...
     2 = max # of 1-2 neighbors
     2 = max # of special neighbors

mass 			1 1

pair_coeff 		1 1 1.0 1.0 2.5
bond_coeff     	1 30 1.5 1.0 1.0

neighbor        	0.2 bin
#comm_modify            mode single cutoff 2.0
neigh_modify    	delay 0 every 1 check yes

compute		1 all msd
compute		2 all rdf 100 1 1 cutoff 2.5
compute 		3 all gyration
compute 		4 all vacf

timestep		0.001
thermo 		100
thermo_style 		custom step etotal enthalpy vol temp press density c_3[4]
dump                   MyDump all custom 1000 dump.atom id type x y z vx vy vz

fix 			1 all ave/time 10 5 50 c_1[4] file msd.txt
fix 			2 all ave/time 1 1 2 c_4[4] file vacf.txt
fix 			3 all ave/time 10 50 1000 c_2[*] file rdf.txt mode vector

fix 			nvt all nvt temp 1.0 1.0 1
run             	1000000
Generated 0 of 0 mixed pair_coeff terms from geometric mixing rule
Step         TotEng        Enthalpy        Volume          Temp          Press         Density         c_3[4]
0   17.402771      17.553438      2343.3524      1.0187216      0.12859102     0.85347811     7.5306723
Averages over the last 5001 of 10001 rows, steps 500000 to 1000000:
TotEng Enthalpy Volume Temp Press Density c_3[4]
17.3171 16.7065 2343.35 0.999578 -0.521082 0.853478 9.59382
Loop time of 599.009 on 1 procs for 1000000 steps with 2000 atoms

write_data 		100mer_simulated.data
System init for write_data ...
Generated 0 of 0 mixed pair_coeff terms from geometric mixing rule
